                                  MODFLOW-2005     
      U.S. GEOLOGICAL SURVEY MODULAR FINITE-DIFFERENCE GROUND-WATER FLOW MODEL
                            VERSION 1.12.00 2/3/2017

 LIST FILE: Scenario
                         UNIT    2

 OPENING Scenario
 FILE TYPE:DIS   UNIT   11   STATUS:OLD    
 FORMAT:FORMATTED              ACCESS:SEQUENTIAL          

 *** ERROR OPENING FILE "Scenario" ON UNIT    11
       SPECIFIED FILE STATUS: OLD    
       SPECIFIED FILE FORMAT: FORMATTED           
       SPECIFIED FILE ACCESS: SEQUENTIAL          
       SPECIFIED FILE ACTION: READ                
  -- STOP EXECUTION (SGWF2BAS7OPEN)
