# RIV package for  MODFLOW-2005, generated by Flopy.
        50        53
        50         0 # stress period 1
         1        26         1             0.5          1000.0            -1.0
         1        26         2             0.5          1000.0            -1.0
         1        26         3             0.5          1000.0            -1.0
         1        26         4             0.5          1000.0            -1.0
         1        26         5             0.5          1000.0            -1.0
         1        26         6             0.5          1000.0            -1.0
         1        26         7             0.5          1000.0            -1.0
         1        26         8             0.5          1000.0            -1.0
         1        26         9             0.5          1000.0            -1.0
         1        26        10             0.5          1000.0            -1.0
         1        26        11             0.5          1000.0            -1.0
         1        26        12             0.5          1000.0            -1.0
         1        26        13             0.5          1000.0            -1.0
         1        26        14             0.5          1000.0            -1.0
         1        26        15             0.5          1000.0            -1.0
         1        26        16             0.5          1000.0            -1.0
         1        26        17             0.5          1000.0            -1.0
         1        26        18             0.5          1000.0            -1.0
         1        26        19             0.5          1000.0            -1.0
         1        26        20             0.5          1000.0            -1.0
         1        26        21             0.5          1000.0            -1.0
         1        26        22             0.5          1000.0            -1.0
         1        26        23             0.5          1000.0            -1.0
         1        26        24             0.5          1000.0            -1.0
         1        26        25             0.5          1000.0            -1.0
         1        26        26             0.5          1000.0            -1.0
         1        26        27             0.5          1000.0            -1.0
         1        26        28             0.5          1000.0            -1.0
         1        26        29             0.5          1000.0            -1.0
         1        26        30             0.5          1000.0            -1.0
         1        26        31             0.5          1000.0            -1.0
         1        26        32             0.5          1000.0            -1.0
         1        26        33             0.5          1000.0            -1.0
         1        26        34             0.5          1000.0            -1.0
         1        26        35             0.5          1000.0            -1.0
         1        26        36             0.5          1000.0            -1.0
         1        26        37             0.5          1000.0            -1.0
         1        26        38             0.5          1000.0            -1.0
         1        26        39             0.5          1000.0            -1.0
         1        26        40             0.5          1000.0            -1.0
         1        26        41             0.5          1000.0            -1.0
         1        26        42             0.5          1000.0            -1.0
         1        26        43             0.5          1000.0            -1.0
         1        26        44             0.5          1000.0            -1.0
         1        26        45             0.5          1000.0            -1.0
         1        26        46             0.5          1000.0            -1.0
         1        26        47             0.5          1000.0            -1.0
         1        26        48             0.5          1000.0            -1.0
         1        26        49             0.5          1000.0            -1.0
         1        26        50             0.5          1000.0            -1.0
